[Format]      =  4.0
[Frequency]   =  0
[Precision]   =  1e-008
[MinAngle]    =  30
[DoSmartMesh] =  1
[Depth]       =  25
[LengthUnits] =  millimeters
[ProblemType] =  planar
[Coordinates] =  cartesian
[ACSolver]    =  0
[PrevType]    =  0
[PrevSoln]    =  ""
[Comment]     =  "Add comments here."
[PointProps]   = 0
[BdryProps]   = 0
[BlockProps]  = 5
  <BeginBlock>
    <BlockName> = "Air"
    <Mu_x> = 1
    <Mu_y> = 1
    <H_c> = 0
    <H_cAngle> = 0
    <J_re> = 0
    <J_im> = 0
    <Sigma> = 0
    <d_lam> = 0
    <Phi_h> = 0
    <Phi_hx> = 0
    <Phi_hy> = 0
    <LamType> = 0
    <LamFill> = 1
    <NStrands> = 0
    <WireD> = 0
    <BHPoints> = 0
  <EndBlock>
  <BeginBlock>
    <BlockName> = "NdFeB 40 MGOe"
    <Mu_x> = 1.0489999999999999
    <Mu_y> = 1.0489999999999999
    <H_c> = 979000
    <H_cAngle> = 0
    <J_re> = 0
    <J_im> = 0
    <Sigma> = 0.66700000000000004
    <d_lam> = 0
    <Phi_h> = 0
    <Phi_hx> = 0
    <Phi_hy> = 0
    <LamType> = 0
    <LamFill> = 1
    <NStrands> = 0
    <WireD> = 0
    <BHPoints> = 0
  <EndBlock>
  <BeginBlock>
    <BlockName> = "1010 Steel"
    <Mu_x> = 902.60000000000002
    <Mu_y> = 902.60000000000002
    <H_c> = 0
    <H_cAngle> = 0
    <J_re> = 0
    <J_im> = 0
    <Sigma> = 5.7999999999999998
    <d_lam> = 0
    <Phi_h> = 20
    <Phi_hx> = 0
    <Phi_hy> = 0
    <LamType> = 0
    <LamFill> = 1
    <NStrands> = 0
    <WireD> = 0
    <BHPoints> = 38
      0	0
      0.21186199999999999	79.577472
      0.26566499999999998	100.182101
      0.33237699999999998	126.121793
      0.414377	158.77793
      0.51381100000000002	199.88957099999999
      0.63189899999999999	251.646061
      0.76778400000000002	316.80362000000002
      0.917018	398.83212800000001
      1.0703530000000001	502.09990099999999
      1.2142550000000001	632.10632499999997
      1.3346370000000001	795.77471500000001
      1.4229810000000001	1001.821011
      1.480634	1261.2179289999999
      1.5172140000000001	1587.779301
      1.5445150000000001	1998.89571
      1.571296	2516.4606050000002
      1.6020490000000001	3168.036204
      1.638404	3988.3212819999999
      1.68049	5020.9990129999996
      1.727311	6321.0632500000002
      1.776659	7957.747155
      1.8254010000000001	10018.210114
      1.870557	12612.179292999999
      1.910809	15877.793009999999
      1.947222	19988.957103000001
      1.9823280000000001	25164.606051999999
      2.0182519999999999	31680.362036999999
      2.0553979999999998	39883.212823000002
      2.0925449999999999	50209.990126999997
      2.1280950000000001	63210.632496999999
      2.1616119999999999	79577.471546000001
      2.1946439999999998	100182.101136
      2.2303389999999998	126121.79292599999
      2.272386	158777.930096
      2.3242820000000002	199889.57102999999
      2.3893559999999998	251646.06052200001
      2.471238	316803.62037000002
  <EndBlock>
  <BeginBlock>
    <BlockName> = "1010 Steel"
    <Mu_x> = 902.60000000000002
    <Mu_y> = 902.60000000000002
    <H_c> = 0
    <H_cAngle> = 0
    <J_re> = 0
    <J_im> = 0
    <Sigma> = 5.7999999999999998
    <d_lam> = 0
    <Phi_h> = 20
    <Phi_hx> = 0
    <Phi_hy> = 0
    <LamType> = 0
    <LamFill> = 1
    <NStrands> = 0
    <WireD> = 0
    <BHPoints> = 38
      0	0
      0.21186199999999999	79.577472
      0.26566499999999998	100.182101
      0.33237699999999998	126.121793
      0.414377	158.77793
      0.51381100000000002	199.88957099999999
      0.63189899999999999	251.646061
      0.76778400000000002	316.80362000000002
      0.917018	398.83212800000001
      1.0703530000000001	502.09990099999999
      1.2142550000000001	632.10632499999997
      1.3346370000000001	795.77471500000001
      1.4229810000000001	1001.821011
      1.480634	1261.2179289999999
      1.5172140000000001	1587.779301
      1.5445150000000001	1998.89571
      1.571296	2516.4606050000002
      1.6020490000000001	3168.036204
      1.638404	3988.3212819999999
      1.68049	5020.9990129999996
      1.727311	6321.0632500000002
      1.776659	7957.747155
      1.8254010000000001	10018.210114
      1.870557	12612.179292999999
      1.910809	15877.793009999999
      1.947222	19988.957103000001
      1.9823280000000001	25164.606051999999
      2.0182519999999999	31680.362036999999
      2.0553979999999998	39883.212823000002
      2.0925449999999999	50209.990126999997
      2.1280950000000001	63210.632496999999
      2.1616119999999999	79577.471546000001
      2.1946439999999998	100182.101136
      2.2303389999999998	126121.79292599999
      2.272386	158777.930096
      2.3242820000000002	199889.57102999999
      2.3893559999999998	251646.06052200001
      2.471238	316803.62037000002
  <EndBlock>
  <BeginBlock>
    <BlockName> = "Copper"
    <Mu_x> = 1
    <Mu_y> = 1
    <H_c> = 0
    <H_cAngle> = 0
    <J_re> = 0
    <J_im> = 0
    <Sigma> = 58
    <d_lam> = 0
    <Phi_h> = 0
    <Phi_hx> = 0
    <Phi_hy> = 0
    <LamType> = 0
    <LamFill> = 1
    <NStrands> = 0
    <WireD> = 0
    <BHPoints> = 0
  <EndBlock>
[CircuitProps]  = 0
[NumPoints] = 180
260	0	0	0
-260	0	0	0
77.781745930520344	77.78174593052033	0	0
-77.781745930520344	-77.78174593052033	0	0
111.07644430760888	93.204203033393128	0	0
93.204203033393213	111.07644430760892	0	0
77.134513416030771	91.925333244473109	0	0
91.925333244473094	77.134513416030757	0	0
87.263178124890985	115.80214923493641	0	0
75.82869295925245	100.62807470266385	0	0
80.991238556502211	96.521600154184114	0	0
66.953548968313513	128.61657096173008	0	0
43.602341004655379	138.28895804946706	0	0
36.084695662490795	114.44603439413275	0	0
55.409833482651152	106.44129995996141	0	0
36.305100139079876	140.38140793025747	0	0
31.547880169621571	121.98660272392976	0	0
37.888930940590065	120.16833561886466	0	0
12.637582806100216	144.44823075887567	0	0
-12.637582806100244	144.44823075887567	0	0
-10.458689121309629	119.54336353295359	0	0
10.45868912130963	119.54336353295359	0	0
-20.180099922186287	143.5888697455639	0	0
-17.535810474328816	124.77377653195479	0	0
-10.981623577375103	125.52053220457604	0	0
-43.602341004655251	138.28895804946691	0	0
-66.953548968313527	128.61657096173016	0	0
-55.409833482651159	106.44129995996141	0	0
-36.084695662490788	114.44603439413279	0	0
-73.593062440553055	124.93622865807818	0	0
-63.949833608045076	108.56527478237764	0	0
-58.180325227494386	111.76336531151283	0	0
-93.204203033393128	111.07644430760888	0	0
-111.07644430760892	93.204203033393213	0	0
-91.925333244473109	77.134513416030771	0	0
-77.134513416030757	91.925333244473094	0	0
-115.80214923493641	87.263178124890985	0	0
-100.62807470266385	75.82869295925245	0	0
-96.521600154184114	80.991238556502211	0	0
-128.61657096173008	66.953548968313513	0	0
-138.28895804946706	43.602341004655379	0	0
-114.44603439413275	36.084695662490795	0	0
-106.44129995996141	55.409833482651152	0	0
-140.38140793025747	36.305100139079876	0	0
-121.98660272392976	31.547880169621571	0	0
-120.16833561886466	37.888930940590065	0	0
-144.44823075887567	12.637582806100216	0	0
-144.44823075887567	-12.637582806100244	0	0
-119.54336353295359	-10.458689121309629	0	0
-119.54336353295359	10.45868912130963	0	0
-143.5888697455639	-20.180099922186287	0	0
-124.77377653195479	-17.535810474328816	0	0
-125.52053220457604	-10.981623577375103	0	0
-138.28895804946691	-43.602341004655251	0	0
-128.61657096173016	-66.953548968313527	0	0
-106.44129995996141	-55.409833482651159	0	0
-114.44603439413279	-36.084695662490788	0	0
-124.93622865807818	-73.593062440553055	0	0
-108.56527478237764	-63.949833608045076	0	0
-111.76336531151283	-58.180325227494386	0	0
-111.07644430760888	-93.204203033393128	0	0
-93.204203033393213	-111.07644430760892	0	0
-77.134513416030771	-91.925333244473109	0	0
-91.925333244473094	-77.134513416030757	0	0
-87.263178124890985	-115.80214923493641	0	0
-75.82869295925245	-100.62807470266385	0	0
-80.991238556502211	-96.521600154184114	0	0
-66.953548968313513	-128.61657096173008	0	0
-43.602341004655379	-138.28895804946706	0	0
-36.084695662490795	-114.44603439413275	0	0
-55.409833482651152	-106.44129995996141	0	0
-36.305100139079876	-140.38140793025747	0	0
-31.547880169621571	-121.98660272392976	0	0
-37.888930940590065	-120.16833561886466	0	0
-12.637582806100216	-144.44823075887567	0	0
12.637582806100244	-144.44823075887567	0	0
10.458689121309629	-119.54336353295359	0	0
-10.45868912130963	-119.54336353295359	0	0
20.180099922186287	-143.5888697455639	0	0
17.535810474328816	-124.77377653195479	0	0
10.981623577375103	-125.52053220457604	0	0
43.602341004655251	-138.28895804946691	0	0
66.953548968313527	-128.61657096173016	0	0
55.409833482651159	-106.44129995996141	0	0
36.084695662490788	-114.44603439413279	0	0
73.593062440553055	-124.93622865807818	0	0
63.949833608045076	-108.56527478237764	0	0
58.180325227494386	-111.76336531151283	0	0
93.204203033393128	-111.07644430760888	0	0
111.07644430760892	-93.204203033393213	0	0
91.925333244473109	-77.134513416030771	0	0
77.134513416030757	-91.925333244473094	0	0
115.80214923493641	-87.263178124890985	0	0
100.62807470266385	-75.82869295925245	0	0
96.521600154184114	-80.991238556502211	0	0
128.61657096173008	-66.953548968313513	0	0
138.28895804946706	-43.602341004655379	0	0
114.44603439413275	-36.084695662490795	0	0
106.44129995996141	-55.409833482651152	0	0
140.38140793025747	-36.305100139079876	0	0
121.98660272392976	-31.547880169621571	0	0
120.16833561886466	-37.888930940590065	0	0
144.44823075887567	-12.637582806100216	0	0
144.44823075887567	12.637582806100244	0	0
119.54336353295359	10.458689121309629	0	0
119.54336353295359	-10.45868912130963	0	0
143.5888697455639	20.180099922186287	0	0
124.77377653195479	17.535810474328816	0	0
125.52053220457604	10.981623577375103	0	0
138.28895804946691	43.602341004655251	0	0
128.61657096173016	66.953548968313527	0	0
106.44129995996141	55.409833482651159	0	0
114.44603439413279	36.084695662490788	0	0
124.93622865807818	73.593062440553055	0	0
108.56527478237764	63.949833608045076	0	0
111.76336531151283	58.180325227494386	0	0
203.47196099999999	-24.983215000000001	0	0
203.47196099999999	24.983215000000001	0	0
156.822292	19.255355999999999	0	0
156.822292	-19.255355999999999	0	0
196.555421	-13.22749	0	0
196.555421	13.22749	0	0
165.62538000000001	11.146007000000001	0	0
165.62538000000001	-11.146007000000001	0	0
161.542204	126.21060199999999	0	0
126.21060199999999	161.542204	0	0
97.274512999999999	124.50569900000001	0	0
124.50569900000001	97.274512999999999	0	0
148.338919	129.63242299999999	0	0
129.63242299999999	148.338919	0	0
109.233412	124.996247	0	0
124.996247	109.233412	0	0
24.983215000000001	203.47196099999999	0	0
-24.983215000000001	203.47196099999999	0	0
-19.255355999999999	156.822292	0	0
19.255355999999999	156.822292	0	0
13.22749	196.555421	0	0
-13.22749	196.555421	0	0
-11.146007000000001	165.62538000000001	0	0
11.146007000000001	165.62538000000001	0	0
-126.21060199999999	161.542204	0	0
-161.542204	126.21060199999999	0	0
-124.50569900000001	97.274512999999999	0	0
-97.274512999999999	124.50569900000001	0	0
-129.63242299999999	148.338919	0	0
-148.338919	129.63242299999999	0	0
-124.996247	109.233412	0	0
-109.233412	124.996247	0	0
-203.47196099999999	24.983215000000001	0	0
-203.47196099999999	-24.983215000000001	0	0
-156.822292	-19.255355999999999	0	0
-156.822292	19.255355999999999	0	0
-196.555421	13.22749	0	0
-196.555421	-13.22749	0	0
-165.62538000000001	-11.146007000000001	0	0
-165.62538000000001	11.146007000000001	0	0
-161.542204	-126.21060199999999	0	0
-126.21060199999999	-161.542204	0	0
-97.274512999999999	-124.50569900000001	0	0
-124.50569900000001	-97.274512999999999	0	0
-148.338919	-129.63242299999999	0	0
-129.63242299999999	-148.338919	0	0
-109.233412	-124.996247	0	0
-124.996247	-109.233412	0	0
-24.983215000000001	-203.47196099999999	0	0
24.983215000000001	-203.47196099999999	0	0
19.255355999999999	-156.822292	0	0
-19.255355999999999	-156.822292	0	0
-13.22749	-196.555421	0	0
13.22749	-196.555421	0	0
11.146007000000001	-165.62538000000001	0	0
-11.146007000000001	-165.62538000000001	0	0
126.21060199999999	-161.542204	0	0
161.542204	-126.21060199999999	0	0
124.50569900000001	-97.274512999999999	0	0
97.274512999999999	-124.50569900000001	0	0
129.63242299999999	-148.338919	0	0
148.338919	-129.63242299999999	0	0
124.996247	-109.233412	0	0
109.233412	-124.996247	0	0
[NumSegments] = 96
4	7	-1	0	0	2
6	10	-1	0	0	2
10	5	-1	0	0	2
9	8	-1	0	0	2
11	14	-1	0	0	2
13	17	-1	0	0	2
17	12	-1	0	0	2
16	15	-1	0	0	2
18	21	-1	0	0	2
20	24	-1	0	0	2
24	19	-1	0	0	2
23	22	-1	0	0	2
25	28	-1	0	0	2
27	31	-1	0	0	2
31	26	-1	0	0	2
30	29	-1	0	0	2
32	35	-1	0	0	2
34	38	-1	0	0	2
38	33	-1	0	0	2
37	36	-1	0	0	2
39	42	-1	0	0	2
41	45	-1	0	0	2
45	40	-1	0	0	2
44	43	-1	0	0	2
46	49	-1	0	0	2
48	52	-1	0	0	2
52	47	-1	0	0	2
51	50	-1	0	0	2
53	56	-1	0	0	2
55	59	-1	0	0	2
59	54	-1	0	0	2
58	57	-1	0	0	2
60	63	-1	0	0	2
62	66	-1	0	0	2
66	61	-1	0	0	2
65	64	-1	0	0	2
67	70	-1	0	0	2
69	73	-1	0	0	2
73	68	-1	0	0	2
72	71	-1	0	0	2
74	77	-1	0	0	2
76	80	-1	0	0	2
80	75	-1	0	0	2
79	78	-1	0	0	2
81	84	-1	0	0	2
83	87	-1	0	0	2
87	82	-1	0	0	2
86	85	-1	0	0	2
88	91	-1	0	0	2
90	94	-1	0	0	2
94	89	-1	0	0	2
93	92	-1	0	0	2
95	98	-1	0	0	2
97	101	-1	0	0	2
101	96	-1	0	0	2
100	99	-1	0	0	2
102	105	-1	0	0	2
104	108	-1	0	0	2
108	103	-1	0	0	2
107	106	-1	0	0	2
109	112	-1	0	0	2
111	115	-1	0	0	2
115	110	-1	0	0	2
114	113	-1	0	0	2
116	119	-1	0	0	1
118	117	-1	0	0	1
120	123	-1	0	0	3
122	121	-1	0	0	3
124	127	-1	0	0	1
126	125	-1	0	0	1
128	131	-1	0	0	3
130	129	-1	0	0	3
132	135	-1	0	0	1
134	133	-1	0	0	1
136	139	-1	0	0	3
138	137	-1	0	0	3
140	143	-1	0	0	1
142	141	-1	0	0	1
144	147	-1	0	0	3
146	145	-1	0	0	3
148	151	-1	0	0	1
150	149	-1	0	0	1
152	155	-1	0	0	3
154	153	-1	0	0	3
156	159	-1	0	0	1
158	157	-1	0	0	1
160	163	-1	0	0	3
162	161	-1	0	0	3
164	167	-1	0	0	1
166	165	-1	0	0	1
168	171	-1	0	0	3
170	169	-1	0	0	3
172	175	-1	0	0	1
174	173	-1	0	0	1
176	179	-1	0	0	3
178	177	-1	0	0	3
[NumArcSegments] = 100
0	1	180	2	0	0	0	2
1	0	180	2	0	0	0	2
2	3	180	2	0	0	2	2
3	2	180	2	0	0	2	2
4	5	10	1	0	0	2	1
6	7	10	1	0	0	2	1
5	8	3	1	0	0	2	1
9	10	3	1	0	0	2	1
11	12	10	1	0	0	2	1
13	14	10	1	0	0	2	1
12	15	3	1	0	0	2	1
16	17	3	1	0	0	2	1
18	19	10	1	0	0	2	1
20	21	10	1	0	0	2	1
19	22	3	1	0	0	2	1
23	24	3	1	0	0	2	1
25	26	10	1	0	0	2	1
27	28	10	1	0	0	2	1
26	29	3	1	0	0	2	1
30	31	3	1	0	0	2	1
32	33	10	1	0	0	2	1
34	35	10	1	0	0	2	1
33	36	3	1	0	0	2	1
37	38	3	1	0	0	2	1
39	40	10	1	0	0	2	1
41	42	10	1	0	0	2	1
40	43	3	1	0	0	2	1
44	45	3	1	0	0	2	1
46	47	10	1	0	0	2	1
48	49	10	1	0	0	2	1
47	50	3	1	0	0	2	1
51	52	3	1	0	0	2	1
53	54	10	1	0	0	2	1
55	56	10	1	0	0	2	1
54	57	3	1	0	0	2	1
58	59	3	1	0	0	2	1
60	61	10	1	0	0	2	1
62	63	10	1	0	0	2	1
61	64	3	1	0	0	2	1
65	66	3	1	0	0	2	1
67	68	10	1	0	0	2	1
69	70	10	1	0	0	2	1
68	71	3	1	0	0	2	1
72	73	3	1	0	0	2	1
74	75	10	1	0	0	2	1
76	77	10	1	0	0	2	1
75	78	3	1	0	0	2	1
79	80	3	1	0	0	2	1
81	82	10	1	0	0	2	1
83	84	10	1	0	0	2	1
82	85	3	1	0	0	2	1
86	87	3	1	0	0	2	1
88	89	10	1	0	0	2	1
90	91	10	1	0	0	2	1
89	92	3	1	0	0	2	1
93	94	3	1	0	0	2	1
95	96	10	1	0	0	2	1
97	98	10	1	0	0	2	1
96	99	3	1	0	0	2	1
100	101	3	1	0	0	2	1
102	103	10	1	0	0	2	1
104	105	10	1	0	0	2	1
103	106	3	1	0	0	2	1
107	108	3	1	0	0	2	1
109	110	10	1	0	0	2	1
111	112	10	1	0	0	2	1
110	113	3	1	0	0	2	1
114	115	3	1	0	0	2	1
116	117	14	1	0	0	1	1
118	119	14	1	0	0	1	1
120	121	7.7000000000000002	1	0	0	3	1
122	123	7.7000000000000002	1	0	0	3	1
124	125	14	1	0	0	1	1
126	127	14	1	0	0	1	1
128	129	7.7000000000000002	1	0	0	3	1
130	131	7.7000000000000002	1	0	0	3	1
132	133	14	1	0	0	1	1
134	135	14	1	0	0	1	1
136	137	7.7000000000000002	1	0	0	3	1
138	139	7.7000000000000002	1	0	0	3	1
140	141	14	1	0	0	1	1
142	143	14	1	0	0	1	1
144	145	7.7000000000000002	1	0	0	3	1
146	147	7.7000000000000002	1	0	0	3	1
148	149	14	1	0	0	1	1
150	151	14	1	0	0	1	1
152	153	7.7000000000000002	1	0	0	3	1
154	155	7.7000000000000002	1	0	0	3	1
156	157	14	1	0	0	1	1
158	159	14	1	0	0	1	1
160	161	7.7000000000000002	1	0	0	3	1
162	163	7.7000000000000002	1	0	0	3	1
164	165	14	1	0	0	1	1
166	167	14	1	0	0	1	1
168	169	7.7000000000000002	1	0	0	3	1
170	171	7.7000000000000002	1	0	0	3	1
172	173	14	1	0	0	1	1
174	175	14	1	0	0	1	1
176	177	7.7000000000000002	1	0	0	3	1
178	179	7.7000000000000002	1	0	0	3	1
[NumHoles] = 0
[NumBlockLabels] = 50
250	0	1	-1	0	0	0	1	0
7.0710678118654844	7.0710678118654826	4	-1	0	0	2	1	0
93.691648507217721	93.691648507217707	2	-1	0	45	2	1	0
84.350733279511047	106.04340461022674	1	-1	0	0	2	1	0
50.705554597900345	122.41403816655534	2	-1	0	247.5	2	1	0
37.348861165896068	130.25095989809512	1	-1	0	0	2	1	0
3.1974423109204508e-014	132.50000069689983	2	-1	0	90	2	1	0
-15.339035473255585	134.62898607796754	1	-1	0	0	2	1	0
-50.705554597900331	122.41403816655532	2	-1	0	292.5	2	1	0
-65.691703482257211	118.51097066185837	1	-1	0	0	2	1	0
-93.691648507217707	93.691648507217721	2	-1	0	135	2	1	0
-106.04340461022674	84.350733279511047	1	-1	0	0	2	1	0
-122.41403816655534	50.705554597900345	2	-1	0	337.5	2	1	0
-130.25095989809512	37.348861165896068	1	-1	0	0	2	1	0
-132.50000069689983	3.1974423109204508e-014	2	-1	0	180	2	1	0
-134.62898607796754	-15.339035473255585	1	-1	0	0	2	1	0
-122.41403816655532	-50.705554597900331	2	-1	0	382.5	2	1	0
-118.51097066185837	-65.691703482257211	1	-1	0	0	2	1	0
-93.691648507217721	-93.691648507217707	2	-1	0	225	2	1	0
-84.350733279511047	-106.04340461022674	1	-1	0	0	2	1	0
-50.705554597900345	-122.41403816655534	2	-1	0	427.5	2	1	0
-37.348861165896068	-130.25095989809512	1	-1	0	0	2	1	0
-3.1974423109204508e-014	-132.50000069689983	2	-1	0	270	2	1	0
15.339035473255585	-134.62898607796754	1	-1	0	0	2	1	0
50.705554597900331	-122.41403816655532	2	-1	0	472.5	2	1	0
65.691703482257211	-118.51097066185837	1	-1	0	0	2	1	0
93.691648507217707	-93.691648507217721	2	-1	0	315	2	1	0
106.04340461022674	-84.350733279511047	1	-1	0	0	2	1	0
122.41403816655534	-50.705554597900345	2	-1	0	517.5	2	1	0
130.25095989809512	-37.348861165896068	1	-1	0	0	2	1	0
132.50000069689983	-3.1974423109204508e-014	2	-1	0	360	2	1	0
134.62898607796754	15.339035473255585	1	-1	0	0	2	1	0
122.41403816655532	50.705554597900331	2	-1	0	562.5	2	1	0
118.51097066185837	65.691703482257211	1	-1	0	0	2	1	0
162	0	4	-1	0	0	1	1	0
181.5	0	5	-1	0	0	3	1	0
114.551299	114.551299	4	-1	0	0	1	1	0
128.33988099999999	128.33988099999999	5	-1	0	0	3	1	0
0	162	4	-1	0	0	1	1	0
0	181.5	5	-1	0	0	3	1	0
-114.551299	114.551299	4	-1	0	0	1	1	0
-128.33988099999999	128.33988099999999	5	-1	0	0	3	1	0
-162	0	4	-1	0	0	1	1	0
-181.5	0	5	-1	0	0	3	1	0
-114.551299	-114.551299	4	-1	0	0	1	1	0
-128.33988099999999	-128.33988099999999	5	-1	0	0	3	1	0
0	-162	4	-1	0	0	1	1	0
0	-181.5	5	-1	0	0	3	1	0
114.551299	-114.551299	4	-1	0	0	1	1	0
128.33988099999999	-128.33988099999999	5	-1	0	0	3	1	0
