[Format]      =  4.0
[Frequency]   =  0
[Precision]   =  1e-008
[MinAngle]    =  30
[DoSmartMesh] =  1
[Depth]       =  25
[LengthUnits] =  millimeters
[ProblemType] =  planar
[Coordinates] =  cartesian
[ACSolver]    =  0
[PrevType]    =  0
[PrevSoln]    =  ""
[Comment]     =  "Add comments here."
[PointProps]   = 0
[BdryProps]   = 0
[BlockProps]  = 5
  <BeginBlock>
    <BlockName> = "Air"
    <Mu_x> = 1
    <Mu_y> = 1
    <H_c> = 0
    <H_cAngle> = 0
    <J_re> = 0
    <J_im> = 0
    <Sigma> = 0
    <d_lam> = 0
    <Phi_h> = 0
    <Phi_hx> = 0
    <Phi_hy> = 0
    <LamType> = 0
    <LamFill> = 1
    <NStrands> = 0
    <WireD> = 0
    <BHPoints> = 0
  <EndBlock>
  <BeginBlock>
    <BlockName> = "NdFeB 40 MGOe"
    <Mu_x> = 1.0489999999999999
    <Mu_y> = 1.0489999999999999
    <H_c> = 979000
    <H_cAngle> = 0
    <J_re> = 0
    <J_im> = 0
    <Sigma> = 0.66700000000000004
    <d_lam> = 0
    <Phi_h> = 0
    <Phi_hx> = 0
    <Phi_hy> = 0
    <LamType> = 0
    <LamFill> = 1
    <NStrands> = 0
    <WireD> = 0
    <BHPoints> = 0
  <EndBlock>
  <BeginBlock>
    <BlockName> = "1010 Steel"
    <Mu_x> = 902.60000000000002
    <Mu_y> = 902.60000000000002
    <H_c> = 0
    <H_cAngle> = 0
    <J_re> = 0
    <J_im> = 0
    <Sigma> = 5.7999999999999998
    <d_lam> = 0
    <Phi_h> = 20
    <Phi_hx> = 0
    <Phi_hy> = 0
    <LamType> = 0
    <LamFill> = 1
    <NStrands> = 0
    <WireD> = 0
    <BHPoints> = 38
      0	0
      0.21186199999999999	79.577472
      0.26566499999999998	100.182101
      0.33237699999999998	126.121793
      0.414377	158.77793
      0.51381100000000002	199.88957099999999
      0.63189899999999999	251.646061
      0.76778400000000002	316.80362000000002
      0.917018	398.83212800000001
      1.0703530000000001	502.09990099999999
      1.2142550000000001	632.10632499999997
      1.3346370000000001	795.77471500000001
      1.4229810000000001	1001.821011
      1.480634	1261.2179289999999
      1.5172140000000001	1587.779301
      1.5445150000000001	1998.89571
      1.571296	2516.4606050000002
      1.6020490000000001	3168.036204
      1.638404	3988.3212819999999
      1.68049	5020.9990129999996
      1.727311	6321.0632500000002
      1.776659	7957.747155
      1.8254010000000001	10018.210114
      1.870557	12612.179292999999
      1.910809	15877.793009999999
      1.947222	19988.957103000001
      1.9823280000000001	25164.606051999999
      2.0182519999999999	31680.362036999999
      2.0553979999999998	39883.212823000002
      2.0925449999999999	50209.990126999997
      2.1280950000000001	63210.632496999999
      2.1616119999999999	79577.471546000001
      2.1946439999999998	100182.101136
      2.2303389999999998	126121.79292599999
      2.272386	158777.930096
      2.3242820000000002	199889.57102999999
      2.3893559999999998	251646.06052200001
      2.471238	316803.62037000002
  <EndBlock>
  <BeginBlock>
    <BlockName> = "1010 Steel"
    <Mu_x> = 902.60000000000002
    <Mu_y> = 902.60000000000002
    <H_c> = 0
    <H_cAngle> = 0
    <J_re> = 0
    <J_im> = 0
    <Sigma> = 5.7999999999999998
    <d_lam> = 0
    <Phi_h> = 20
    <Phi_hx> = 0
    <Phi_hy> = 0
    <LamType> = 0
    <LamFill> = 1
    <NStrands> = 0
    <WireD> = 0
    <BHPoints> = 38
      0	0
      0.21186199999999999	79.577472
      0.26566499999999998	100.182101
      0.33237699999999998	126.121793
      0.414377	158.77793
      0.51381100000000002	199.88957099999999
      0.63189899999999999	251.646061
      0.76778400000000002	316.80362000000002
      0.917018	398.83212800000001
      1.0703530000000001	502.09990099999999
      1.2142550000000001	632.10632499999997
      1.3346370000000001	795.77471500000001
      1.4229810000000001	1001.821011
      1.480634	1261.2179289999999
      1.5172140000000001	1587.779301
      1.5445150000000001	1998.89571
      1.571296	2516.4606050000002
      1.6020490000000001	3168.036204
      1.638404	3988.3212819999999
      1.68049	5020.9990129999996
      1.727311	6321.0632500000002
      1.776659	7957.747155
      1.8254010000000001	10018.210114
      1.870557	12612.179292999999
      1.910809	15877.793009999999
      1.947222	19988.957103000001
      1.9823280000000001	25164.606051999999
      2.0182519999999999	31680.362036999999
      2.0553979999999998	39883.212823000002
      2.0925449999999999	50209.990126999997
      2.1280950000000001	63210.632496999999
      2.1616119999999999	79577.471546000001
      2.1946439999999998	100182.101136
      2.2303389999999998	126121.79292599999
      2.272386	158777.930096
      2.3242820000000002	199889.57102999999
      2.3893559999999998	251646.06052200001
      2.471238	316803.62037000002
  <EndBlock>
  <BeginBlock>
    <BlockName> = "Copper"
    <Mu_x> = 1
    <Mu_y> = 1
    <H_c> = 0
    <H_cAngle> = 0
    <J_re> = 0
    <J_im> = 0
    <Sigma> = 58
    <d_lam> = 0
    <Phi_h> = 0
    <Phi_hx> = 0
    <Phi_hy> = 0
    <LamType> = 0
    <LamFill> = 1
    <NStrands> = 0
    <WireD> = 0
    <BHPoints> = 0
  <EndBlock>
[CircuitProps]  = 0
[NumPoints] = 164
260	0	0	0
-260	0	0	0
80.448907178108868	75.019819606874933	0	0
-80.448907178108868	-75.019819606874933	0	0
83.359004159271237	86.320776107781867	0	0
97.08203903867053	70.534230293344763	0	0
117.30746433381445	85.22886143975397	0	0
97.252171876600684	100.70757223118602	0	0
43.980146856494358	111.65010835476254	0	0
62.699827572561745	102.31681936526765	0	0
75.762291772444968	123.63282436829327	0	0
51.310171576361256	130.25845997455573	0	0
-2.0942885601194261	119.98172353846049	0	0
18.772135514944818	118.52260054766272	0	0
22.682997178146966	143.21480925701115	0	0
-2.443337116364106	139.97867771354763	0	0
-47.84988839707021	110.04720890294183	0	0
-28.013444150337783	116.68439065917832	0	0
-33.849577976852558	140.99363837591355	0	0
-55.824870032140552	128.38841039499141	0	0
-86.320776107781867	83.359004159271237	0	0
-70.534230293344763	97.08203903867053	0	0
-85.22886143975397	117.30746433381445	0	0
-100.70757223118602	97.252171876600684	0	0
-111.65010835476254	43.980146856494358	0	0
-102.31681936526765	62.699827572561745	0	0
-123.63282436829327	75.762291772444968	0	0
-130.25845997455573	51.310171576361256	0	0
-119.98172353846049	-2.0942885601194261	0	0
-118.52260054766272	18.772135514944818	0	0
-143.21480925701115	22.682997178146966	0	0
-139.97867771354763	-2.443337116364106	0	0
-110.04720890294183	-47.84988839707021	0	0
-116.68439065917832	-28.013444150337783	0	0
-140.99363837591355	-33.849577976852558	0	0
-128.38841039499141	-55.824870032140552	0	0
-83.359004159271237	-86.320776107781867	0	0
-97.08203903867053	-70.534230293344763	0	0
-117.30746433381445	-85.22886143975397	0	0
-97.252171876600684	-100.70757223118602	0	0
-43.980146856494358	-111.65010835476254	0	0
-62.699827572561745	-102.31681936526765	0	0
-75.762291772444968	-123.63282436829327	0	0
-51.310171576361256	-130.25845997455573	0	0
2.0942885601194261	-119.98172353846049	0	0
-18.772135514944818	-118.52260054766272	0	0
-22.682997178146966	-143.21480925701115	0	0
2.443337116364106	-139.97867771354763	0	0
47.84988839707021	-110.04720890294183	0	0
28.013444150337783	-116.68439065917832	0	0
33.849577976852558	-140.99363837591355	0	0
55.824870032140552	-128.38841039499141	0	0
86.320776107781867	-83.359004159271237	0	0
70.534230293344763	-97.08203903867053	0	0
85.22886143975397	-117.30746433381445	0	0
100.70757223118602	-97.252171876600684	0	0
111.65010835476254	-43.980146856494358	0	0
102.31681936526765	-62.699827572561745	0	0
123.63282436829327	-75.762291772444968	0	0
130.25845997455573	-51.310171576361256	0	0
119.98172353846049	2.0942885601194261	0	0
118.52260054766272	-18.772135514944818	0	0
143.21480925701115	-22.682997178146966	0	0
139.97867771354763	2.443337116364106	0	0
110.04720890294183	47.84988839707021	0	0
116.68439065917832	28.013444150337783	0	0
140.99363837591355	33.849577976852558	0	0
128.38841039499141	55.824870032140552	0	0
204.21991299999999	17.866927	0	0
193.83130800000001	66.741472000000002	0	0
149.39193499999999	51.439768000000001	0	0
157.398762	13.770607	0	0
195.01036300000001	27.927731999999999	0	0
189.510064	53.804608000000002	0	0
159.688683	45.337893000000001	0	0
164.323453	23.533013	0	0
202.876338	7.0845979999999997	0	0
202.50550200000001	14.160564000000001	0	0
159.61024800000001	11.161035999999999	0	0
159.90253200000001	5.5839189999999999	0	0
131.77145999999999	157.03911099999999	0	0
89.866084999999998	184.252779	0	0
69.262641000000002	142.00945899999999	0	0
101.56044199999999	121.035022	0	0
118.145262	157.64103900000001	0	0
95.958247999999998	172.049454	0	0
80.858219000000005	144.97568200000001	0	0
99.553875000000005	132.83458099999999	0	0
138.44566699999999	148.46480099999999	0	0
133.17998299999999	153.20604499999999	0	0
104.96944499999999	120.753533	0	0
109.119738	117.016592	0	0
-17.866927	204.21991299999999	0	0
-66.741472000000002	193.83130800000001	0	0
-51.439768000000001	149.39193499999999	0	0
-13.770607	157.398762	0	0
-27.927731999999999	195.01036300000001	0	0
-53.804608000000002	189.510064	0	0
-45.337893000000001	159.688683	0	0
-23.533013	164.323453	0	0
-7.0845979999999997	202.876338	0	0
-14.160564000000001	202.50550200000001	0	0
-11.161035999999999	159.61024800000001	0	0
-5.5839189999999999	159.90253200000001	0	0
-157.03911099999999	131.77145999999999	0	0
-184.252779	89.866084999999998	0	0
-142.00945899999999	69.262641000000002	0	0
-121.035022	101.56044199999999	0	0
-157.64103900000001	118.145262	0	0
-172.049454	95.958247999999998	0	0
-144.97568200000001	80.858219000000005	0	0
-132.83458099999999	99.553875000000005	0	0
-148.46480099999999	138.44566699999999	0	0
-153.20604499999999	133.17998299999999	0	0
-120.753533	104.96944499999999	0	0
-117.016592	109.119738	0	0
-204.21991299999999	-17.866927	0	0
-193.83130800000001	-66.741472000000002	0	0
-149.39193499999999	-51.439768000000001	0	0
-157.398762	-13.770607	0	0
-195.01036300000001	-27.927731999999999	0	0
-189.510064	-53.804608000000002	0	0
-159.688683	-45.337893000000001	0	0
-164.323453	-23.533013	0	0
-202.876338	-7.0845979999999997	0	0
-202.50550200000001	-14.160564000000001	0	0
-159.61024800000001	-11.161035999999999	0	0
-159.90253200000001	-5.5839189999999999	0	0
-131.77145999999999	-157.03911099999999	0	0
-89.866084999999998	-184.252779	0	0
-69.262641000000002	-142.00945899999999	0	0
-101.56044199999999	-121.035022	0	0
-118.145262	-157.64103900000001	0	0
-95.958247999999998	-172.049454	0	0
-80.858219000000005	-144.97568200000001	0	0
-99.553875000000005	-132.83458099999999	0	0
-138.44566699999999	-148.46480099999999	0	0
-133.17998299999999	-153.20604499999999	0	0
-104.96944499999999	-120.753533	0	0
-109.119738	-117.016592	0	0
17.866927	-204.21991299999999	0	0
66.741472000000002	-193.83130800000001	0	0
51.439768000000001	-149.39193499999999	0	0
13.770607	-157.398762	0	0
27.927731999999999	-195.01036300000001	0	0
53.804608000000002	-189.510064	0	0
45.337893000000001	-159.688683	0	0
23.533013	-164.323453	0	0
7.0845979999999997	-202.876338	0	0
14.160564000000001	-202.50550200000001	0	0
11.161035999999999	-159.61024800000001	0	0
5.5839189999999999	-159.90253200000001	0	0
157.03911099999999	-131.77145999999999	0	0
184.252779	-89.866084999999998	0	0
142.00945899999999	-69.262641000000002	0	0
121.035022	-101.56044199999999	0	0
157.64103900000001	-118.145262	0	0
172.049454	-95.958247999999998	0	0
144.97568200000001	-80.858219000000005	0	0
132.83458099999999	-99.553875000000005	0	0
148.46480099999999	-138.44566699999999	0	0
153.20604499999999	-133.17998299999999	0	0
120.753533	-104.96944499999999	0	0
117.016592	-109.119738	0	0
[NumSegments] = 96
5	6	-1	0	0	2
6	7	-1	0	0	2
7	4	-1	0	0	2
9	10	-1	0	0	2
10	11	-1	0	0	2
11	8	-1	0	0	2
13	14	-1	0	0	2
14	15	-1	0	0	2
15	12	-1	0	0	2
17	18	-1	0	0	2
18	19	-1	0	0	2
19	16	-1	0	0	2
21	22	-1	0	0	2
22	23	-1	0	0	2
23	20	-1	0	0	2
25	26	-1	0	0	2
26	27	-1	0	0	2
27	24	-1	0	0	2
29	30	-1	0	0	2
30	31	-1	0	0	2
31	28	-1	0	0	2
33	34	-1	0	0	2
34	35	-1	0	0	2
35	32	-1	0	0	2
37	38	-1	0	0	2
38	39	-1	0	0	2
39	36	-1	0	0	2
41	42	-1	0	0	2
42	43	-1	0	0	2
43	40	-1	0	0	2
45	46	-1	0	0	2
46	47	-1	0	0	2
47	44	-1	0	0	2
49	50	-1	0	0	2
50	51	-1	0	0	2
51	48	-1	0	0	2
53	54	-1	0	0	2
54	55	-1	0	0	2
55	52	-1	0	0	2
57	58	-1	0	0	2
58	59	-1	0	0	2
59	56	-1	0	0	2
61	62	-1	0	0	2
62	63	-1	0	0	2
63	60	-1	0	0	2
65	66	-1	0	0	2
66	67	-1	0	0	2
67	64	-1	0	0	2
68	71	-1	0	0	1
70	69	-1	0	0	1
72	75	-1	0	0	3
74	73	-1	0	0	3
76	79	-1	0	0	1
78	77	-1	0	0	1
80	83	-1	0	0	1
82	81	-1	0	0	1
84	87	-1	0	0	3
86	85	-1	0	0	3
88	91	-1	0	0	1
90	89	-1	0	0	1
92	95	-1	0	0	1
94	93	-1	0	0	1
96	99	-1	0	0	3
98	97	-1	0	0	3
100	103	-1	0	0	1
102	101	-1	0	0	1
104	107	-1	0	0	1
106	105	-1	0	0	1
108	111	-1	0	0	3
110	109	-1	0	0	3
112	115	-1	0	0	1
114	113	-1	0	0	1
116	119	-1	0	0	1
118	117	-1	0	0	1
120	123	-1	0	0	3
122	121	-1	0	0	3
124	127	-1	0	0	1
126	125	-1	0	0	1
128	131	-1	0	0	1
130	129	-1	0	0	1
132	135	-1	0	0	3
134	133	-1	0	0	3
136	139	-1	0	0	1
138	137	-1	0	0	1
140	143	-1	0	0	1
142	141	-1	0	0	1
144	147	-1	0	0	3
146	145	-1	0	0	3
148	151	-1	0	0	1
150	149	-1	0	0	1
152	155	-1	0	0	1
154	153	-1	0	0	1
156	159	-1	0	0	3
158	157	-1	0	0	3
160	163	-1	0	0	1
162	161	-1	0	0	1
[NumArcSegments] = 68
0	1	180	2	0	0	0	2
1	0	180	2	0	0	0	2
2	3	180	2	0	0	2	2
3	2	180	2	0	0	2	2
4	5	10	1	0	0	2	1
8	9	10	1	0	0	2	1
12	13	10	1	0	0	2	1
16	17	10	1	0	0	2	1
20	21	10	1	0	0	2	1
24	25	10	1	0	0	2	1
28	29	10	1	0	0	2	1
32	33	10	1	0	0	2	1
36	37	10	1	0	0	2	1
40	41	10	1	0	0	2	1
44	45	10	1	0	0	2	1
48	49	10	1	0	0	2	1
52	53	10	1	0	0	2	1
56	57	10	1	0	0	2	1
60	61	10	1	0	0	2	1
64	65	10	1	0	0	2	1
68	69	14	1	0	0	1	1
70	71	14	1	0	0	1	1
72	73	7.7000000000000002	1	0	0	3	1
74	75	7.7000000000000002	1	0	0	3	1
76	77	2	1	0	0	1	1
78	79	2	1	0	0	1	1
80	81	14	1	0	0	1	1
82	83	14	1	0	0	1	1
84	85	7.7000000000000002	1	0	0	3	1
86	87	7.7000000000000002	1	0	0	3	1
88	89	2	1	0	0	1	1
90	91	2	1	0	0	1	1
92	93	14	1	0	0	1	1
94	95	14	1	0	0	1	1
96	97	7.7000000000000002	1	0	0	3	1
98	99	7.7000000000000002	1	0	0	3	1
100	101	2	1	0	0	1	1
102	103	2	1	0	0	1	1
104	105	14	1	0	0	1	1
106	107	14	1	0	0	1	1
108	109	7.7000000000000002	1	0	0	3	1
110	111	7.7000000000000002	1	0	0	3	1
112	113	2	1	0	0	1	1
114	115	2	1	0	0	1	1
116	117	14	1	0	0	1	1
118	119	14	1	0	0	1	1
120	121	7.7000000000000002	1	0	0	3	1
122	123	7.7000000000000002	1	0	0	3	1
124	125	2	1	0	0	1	1
126	127	2	1	0	0	1	1
128	129	14	1	0	0	1	1
130	131	14	1	0	0	1	1
132	133	7.7000000000000002	1	0	0	3	1
134	135	7.7000000000000002	1	0	0	3	1
136	137	2	1	0	0	1	1
138	139	2	1	0	0	1	1
140	141	14	1	0	0	1	1
142	143	14	1	0	0	1	1
144	145	7.7000000000000002	1	0	0	3	1
146	147	7.7000000000000002	1	0	0	3	1
148	149	2	1	0	0	1	1
150	151	2	1	0	0	1	1
152	153	14	1	0	0	1	1
154	155	14	1	0	0	1	1
156	157	7.7000000000000002	1	0	0	3	1
158	159	7.7000000000000002	1	0	0	3	1
160	161	2	1	0	0	1	1
162	163	2	1	0	0	1	1
[NumHoles] = 0
[NumBlockLabels] = 42
250	0	1	-1	0	0	0	1	0
7.3135370161917139	6.8199836006249912	4	-1	0	0	2	1	0
98.75016983975037	85.69785966467866	2	-1	0	43	2	1	0
58.438109444465546	116.96455301571986	2	-1	0	245.5	2	1	0
9.2293772779896592	130.42445256899336	2	-1	0	88	2	1	0
-41.384444773423375	124.02841242425527	2	-1	0	290.5	2	1	0
-85.69785966467866	98.75016983975037	2	-1	0	133	2	1	0
-116.96455301571986	58.438109444465546	2	-1	0	335.5	2	1	0
-130.42445256899336	9.2293772779896592	2	-1	0	178	2	1	0
-124.02841242425527	-41.384444773423375	2	-1	0	380.5	2	1	0
-98.75016983975037	-85.69785966467866	2	-1	0	223	2	1	0
-58.438109444465546	-116.96455301571986	2	-1	0	425.5	2	1	0
-9.2293772779896592	-130.42445256899336	2	-1	0	268	2	1	0
41.384444773423375	-124.02841242425527	2	-1	0	470.5	2	1	0
85.69785966467866	-98.75016983975037	2	-1	0	313	2	1	0
116.96455301571986	-58.438109444465546	2	-1	0	515.5	2	1	0
130.42445256899336	-9.2293772779896592	2	-1	0	358	2	1	0
124.02841242425527	41.384444773423375	2	-1	0	560.5	2	1	0
158.45991100000001	33.681694	4	-1	0	0	1	1	0
177.53379000000001	37.735971999999997	5	-1	0	0	3	1	0
181.251261	9.4989760000000008	1	-1	0	0	1	1	0
88.231523999999993	135.864632	4	-1	0	0	1	1	0
98.851984999999999	152.21870799999999	5	-1	0	0	3	1	0
121.447205	134.880786	1	-1	0	0	1	1	0
-33.681694	158.45991100000001	4	-1	0	0	1	1	0
-37.735971999999997	177.53379000000001	5	-1	0	0	3	1	0
-9.4989760000000008	181.251261	1	-1	0	0	1	1	0
-135.864632	88.231523999999993	4	-1	0	0	1	1	0
-152.21870799999999	98.851984999999999	5	-1	0	0	3	1	0
-134.880786	121.447205	1	-1	0	0	1	1	0
-158.45991100000001	-33.681694	4	-1	0	0	1	1	0
-177.53379000000001	-37.735971999999997	5	-1	0	0	3	1	0
-181.251261	-9.4989760000000008	1	-1	0	0	1	1	0
-88.231523999999993	-135.864632	4	-1	0	0	1	1	0
-98.851984999999999	-152.21870799999999	5	-1	0	0	3	1	0
-121.447205	-134.880786	1	-1	0	0	1	1	0
33.681694	-158.45991100000001	4	-1	0	0	1	1	0
37.735971999999997	-177.53379000000001	5	-1	0	0	3	1	0
9.4989760000000008	-181.251261	1	-1	0	0	1	1	0
135.864632	-88.231523999999993	4	-1	0	0	1	1	0
152.21870799999999	-98.851984999999999	5	-1	0	0	3	1	0
134.880786	-121.447205	1	-1	0	0	1	1	0
