[Format]      =  4.0
[Frequency]   =  0
[Precision]   =  1e-008
[MinAngle]    =  30
[DoSmartMesh] =  1
[Depth]       =  25
[LengthUnits] =  millimeters
[ProblemType] =  planar
[Coordinates] =  cartesian
[ACSolver]    =  0
[PrevType]    =  0
[PrevSoln]    =  ""
[Comment]     =  "Add comments here."
[PointProps]   = 0
[BdryProps]   = 0
[BlockProps]  = 5
  <BeginBlock>
    <BlockName> = "Air"
    <Mu_x> = 1
    <Mu_y> = 1
    <H_c> = 0
    <H_cAngle> = 0
    <J_re> = 0
    <J_im> = 0
    <Sigma> = 0
    <d_lam> = 0
    <Phi_h> = 0
    <Phi_hx> = 0
    <Phi_hy> = 0
    <LamType> = 0
    <LamFill> = 1
    <NStrands> = 0
    <WireD> = 0
    <BHPoints> = 0
  <EndBlock>
  <BeginBlock>
    <BlockName> = "NdFeB 40 MGOe"
    <Mu_x> = 1.0489999999999999
    <Mu_y> = 1.0489999999999999
    <H_c> = 979000
    <H_cAngle> = 0
    <J_re> = 0
    <J_im> = 0
    <Sigma> = 0.66700000000000004
    <d_lam> = 0
    <Phi_h> = 0
    <Phi_hx> = 0
    <Phi_hy> = 0
    <LamType> = 0
    <LamFill> = 1
    <NStrands> = 0
    <WireD> = 0
    <BHPoints> = 0
  <EndBlock>
  <BeginBlock>
    <BlockName> = "1010 Steel"
    <Mu_x> = 902.60000000000002
    <Mu_y> = 902.60000000000002
    <H_c> = 0
    <H_cAngle> = 0
    <J_re> = 0
    <J_im> = 0
    <Sigma> = 5.7999999999999998
    <d_lam> = 0
    <Phi_h> = 20
    <Phi_hx> = 0
    <Phi_hy> = 0
    <LamType> = 0
    <LamFill> = 1
    <NStrands> = 0
    <WireD> = 0
    <BHPoints> = 38
      0	0
      0.21186199999999999	79.577472
      0.26566499999999998	100.182101
      0.33237699999999998	126.121793
      0.414377	158.77793
      0.51381100000000002	199.88957099999999
      0.63189899999999999	251.646061
      0.76778400000000002	316.80362000000002
      0.917018	398.83212800000001
      1.0703530000000001	502.09990099999999
      1.2142550000000001	632.10632499999997
      1.3346370000000001	795.77471500000001
      1.4229810000000001	1001.821011
      1.480634	1261.2179289999999
      1.5172140000000001	1587.779301
      1.5445150000000001	1998.89571
      1.571296	2516.4606050000002
      1.6020490000000001	3168.036204
      1.638404	3988.3212819999999
      1.68049	5020.9990129999996
      1.727311	6321.0632500000002
      1.776659	7957.747155
      1.8254010000000001	10018.210114
      1.870557	12612.179292999999
      1.910809	15877.793009999999
      1.947222	19988.957103000001
      1.9823280000000001	25164.606051999999
      2.0182519999999999	31680.362036999999
      2.0553979999999998	39883.212823000002
      2.0925449999999999	50209.990126999997
      2.1280950000000001	63210.632496999999
      2.1616119999999999	79577.471546000001
      2.1946439999999998	100182.101136
      2.2303389999999998	126121.79292599999
      2.272386	158777.930096
      2.3242820000000002	199889.57102999999
      2.3893559999999998	251646.06052200001
      2.471238	316803.62037000002
  <EndBlock>
  <BeginBlock>
    <BlockName> = "1010 Steel"
    <Mu_x> = 902.60000000000002
    <Mu_y> = 902.60000000000002
    <H_c> = 0
    <H_cAngle> = 0
    <J_re> = 0
    <J_im> = 0
    <Sigma> = 5.7999999999999998
    <d_lam> = 0
    <Phi_h> = 20
    <Phi_hx> = 0
    <Phi_hy> = 0
    <LamType> = 0
    <LamFill> = 1
    <NStrands> = 0
    <WireD> = 0
    <BHPoints> = 38
      0	0
      0.21186199999999999	79.577472
      0.26566499999999998	100.182101
      0.33237699999999998	126.121793
      0.414377	158.77793
      0.51381100000000002	199.88957099999999
      0.63189899999999999	251.646061
      0.76778400000000002	316.80362000000002
      0.917018	398.83212800000001
      1.0703530000000001	502.09990099999999
      1.2142550000000001	632.10632499999997
      1.3346370000000001	795.77471500000001
      1.4229810000000001	1001.821011
      1.480634	1261.2179289999999
      1.5172140000000001	1587.779301
      1.5445150000000001	1998.89571
      1.571296	2516.4606050000002
      1.6020490000000001	3168.036204
      1.638404	3988.3212819999999
      1.68049	5020.9990129999996
      1.727311	6321.0632500000002
      1.776659	7957.747155
      1.8254010000000001	10018.210114
      1.870557	12612.179292999999
      1.910809	15877.793009999999
      1.947222	19988.957103000001
      1.9823280000000001	25164.606051999999
      2.0182519999999999	31680.362036999999
      2.0553979999999998	39883.212823000002
      2.0925449999999999	50209.990126999997
      2.1280950000000001	63210.632496999999
      2.1616119999999999	79577.471546000001
      2.1946439999999998	100182.101136
      2.2303389999999998	126121.79292599999
      2.272386	158777.930096
      2.3242820000000002	199889.57102999999
      2.3893559999999998	251646.06052200001
      2.471238	316803.62037000002
  <EndBlock>
  <BeginBlock>
    <BlockName> = "Copper"
    <Mu_x> = 1
    <Mu_y> = 1
    <H_c> = 0
    <H_cAngle> = 0
    <J_re> = 0
    <J_im> = 0
    <Sigma> = 58
    <d_lam> = 0
    <Phi_h> = 0
    <Phi_hx> = 0
    <Phi_hy> = 0
    <LamType> = 0
    <LamFill> = 1
    <NStrands> = 0
    <WireD> = 0
    <BHPoints> = 0
  <EndBlock>
[CircuitProps]  = 0
[NumPoints] = 132
260	0	0	0
-260	0	0	0
77.781745930520344	77.78174593052033	0	0
-77.781745930520344	-77.78174593052033	0	0
111.07644430760888	93.204203033393128	0	0
93.204203033393213	111.07644430760892	0	0
77.134513416030771	91.925333244473109	0	0
91.925333244473094	77.134513416030757	0	0
66.953548968313513	128.61657096173008	0	0
43.602341004655379	138.28895804946706	0	0
36.084695662490795	114.44603439413275	0	0
55.409833482651152	106.44129995996141	0	0
12.637582806100216	144.44823075887567	0	0
-12.637582806100244	144.44823075887567	0	0
-10.458689121309629	119.54336353295359	0	0
10.45868912130963	119.54336353295359	0	0
-43.602341004655251	138.28895804946691	0	0
-66.953548968313527	128.61657096173016	0	0
-55.409833482651159	106.44129995996141	0	0
-36.084695662490788	114.44603439413279	0	0
-93.204203033393128	111.07644430760888	0	0
-111.07644430760892	93.204203033393213	0	0
-91.925333244473109	77.134513416030771	0	0
-77.134513416030757	91.925333244473094	0	0
-128.61657096173008	66.953548968313513	0	0
-138.28895804946706	43.602341004655379	0	0
-114.44603439413275	36.084695662490795	0	0
-106.44129995996141	55.409833482651152	0	0
-144.44823075887567	12.637582806100216	0	0
-144.44823075887567	-12.637582806100244	0	0
-119.54336353295359	-10.458689121309629	0	0
-119.54336353295359	10.45868912130963	0	0
-138.28895804946691	-43.602341004655251	0	0
-128.61657096173016	-66.953548968313527	0	0
-106.44129995996141	-55.409833482651159	0	0
-114.44603439413279	-36.084695662490788	0	0
-111.07644430760888	-93.204203033393128	0	0
-93.204203033393213	-111.07644430760892	0	0
-77.134513416030771	-91.925333244473109	0	0
-91.925333244473094	-77.134513416030757	0	0
-66.953548968313513	-128.61657096173008	0	0
-43.602341004655379	-138.28895804946706	0	0
-36.084695662490795	-114.44603439413275	0	0
-55.409833482651152	-106.44129995996141	0	0
-12.637582806100216	-144.44823075887567	0	0
12.637582806100244	-144.44823075887567	0	0
10.458689121309629	-119.54336353295359	0	0
-10.45868912130963	-119.54336353295359	0	0
43.602341004655251	-138.28895804946691	0	0
66.953548968313527	-128.61657096173016	0	0
55.409833482651159	-106.44129995996141	0	0
36.084695662490788	-114.44603439413279	0	0
93.204203033393128	-111.07644430760888	0	0
111.07644430760892	-93.204203033393213	0	0
91.925333244473109	-77.134513416030771	0	0
77.134513416030757	-91.925333244473094	0	0
128.61657096173008	-66.953548968313513	0	0
138.28895804946706	-43.602341004655379	0	0
114.44603439413275	-36.084695662490795	0	0
106.44129995996141	-55.409833482651152	0	0
144.44823075887567	-12.637582806100216	0	0
144.44823075887567	12.637582806100244	0	0
119.54336353295359	10.458689121309629	0	0
119.54336353295359	-10.45868912130963	0	0
138.28895804946691	43.602341004655251	0	0
128.61657096173016	66.953548968313527	0	0
106.44129995996141	55.409833482651159	0	0
114.44603439413279	36.084695662490788	0	0
203.47196099999999	-24.983215000000001	0	0
203.47196099999999	24.983215000000001	0	0
156.822292	19.255355999999999	0	0
156.822292	-19.255355999999999	0	0
196.555421	-13.22749	0	0
196.555421	13.22749	0	0
165.62538000000001	11.146007000000001	0	0
165.62538000000001	-11.146007000000001	0	0
161.542204	126.21060199999999	0	0
126.21060199999999	161.542204	0	0
97.274512999999999	124.50569900000001	0	0
124.50569900000001	97.274512999999999	0	0
148.338919	129.63242299999999	0	0
129.63242299999999	148.338919	0	0
109.233412	124.996247	0	0
124.996247	109.233412	0	0
24.983215000000001	203.47196099999999	0	0
-24.983215000000001	203.47196099999999	0	0
-19.255355999999999	156.822292	0	0
19.255355999999999	156.822292	0	0
13.22749	196.555421	0	0
-13.22749	196.555421	0	0
-11.146007000000001	165.62538000000001	0	0
11.146007000000001	165.62538000000001	0	0
-126.21060199999999	161.542204	0	0
-161.542204	126.21060199999999	0	0
-124.50569900000001	97.274512999999999	0	0
-97.274512999999999	124.50569900000001	0	0
-129.63242299999999	148.338919	0	0
-148.338919	129.63242299999999	0	0
-124.996247	109.233412	0	0
-109.233412	124.996247	0	0
-203.47196099999999	24.983215000000001	0	0
-203.47196099999999	-24.983215000000001	0	0
-156.822292	-19.255355999999999	0	0
-156.822292	19.255355999999999	0	0
-196.555421	13.22749	0	0
-196.555421	-13.22749	0	0
-165.62538000000001	-11.146007000000001	0	0
-165.62538000000001	11.146007000000001	0	0
-161.542204	-126.21060199999999	0	0
-126.21060199999999	-161.542204	0	0
-97.274512999999999	-124.50569900000001	0	0
-124.50569900000001	-97.274512999999999	0	0
-148.338919	-129.63242299999999	0	0
-129.63242299999999	-148.338919	0	0
-109.233412	-124.996247	0	0
-124.996247	-109.233412	0	0
-24.983215000000001	-203.47196099999999	0	0
24.983215000000001	-203.47196099999999	0	0
19.255355999999999	-156.822292	0	0
-19.255355999999999	-156.822292	0	0
-13.22749	-196.555421	0	0
13.22749	-196.555421	0	0
11.146007000000001	-165.62538000000001	0	0
-11.146007000000001	-165.62538000000001	0	0
126.21060199999999	-161.542204	0	0
161.542204	-126.21060199999999	0	0
124.50569900000001	-97.274512999999999	0	0
97.274512999999999	-124.50569900000001	0	0
129.63242299999999	-148.338919	0	0
148.338919	-129.63242299999999	0	0
124.996247	-109.233412	0	0
109.233412	-124.996247	0	0
[NumSegments] = 64
4	7	-1	0	0	2
6	5	-1	0	0	2
8	11	-1	0	0	2
10	9	-1	0	0	2
12	15	-1	0	0	2
14	13	-1	0	0	2
16	19	-1	0	0	2
18	17	-1	0	0	2
20	23	-1	0	0	2
22	21	-1	0	0	2
24	27	-1	0	0	2
26	25	-1	0	0	2
28	31	-1	0	0	2
30	29	-1	0	0	2
32	35	-1	0	0	2
34	33	-1	0	0	2
36	39	-1	0	0	2
38	37	-1	0	0	2
40	43	-1	0	0	2
42	41	-1	0	0	2
44	47	-1	0	0	2
46	45	-1	0	0	2
48	51	-1	0	0	2
50	49	-1	0	0	2
52	55	-1	0	0	2
54	53	-1	0	0	2
56	59	-1	0	0	2
58	57	-1	0	0	2
60	63	-1	0	0	2
62	61	-1	0	0	2
64	67	-1	0	0	2
66	65	-1	0	0	2
68	71	-1	0	0	1
70	69	-1	0	0	1
72	75	-1	0	0	3
74	73	-1	0	0	3
76	79	-1	0	0	1
78	77	-1	0	0	1
80	83	-1	0	0	3
82	81	-1	0	0	3
84	87	-1	0	0	1
86	85	-1	0	0	1
88	91	-1	0	0	3
90	89	-1	0	0	3
92	95	-1	0	0	1
94	93	-1	0	0	1
96	99	-1	0	0	3
98	97	-1	0	0	3
100	103	-1	0	0	1
102	101	-1	0	0	1
104	107	-1	0	0	3
106	105	-1	0	0	3
108	111	-1	0	0	1
110	109	-1	0	0	1
112	115	-1	0	0	3
114	113	-1	0	0	3
116	119	-1	0	0	1
118	117	-1	0	0	1
120	123	-1	0	0	3
122	121	-1	0	0	3
124	127	-1	0	0	1
126	125	-1	0	0	1
128	131	-1	0	0	3
130	129	-1	0	0	3
[NumArcSegments] = 68
0	1	180	2	0	0	0	2
1	0	180	2	0	0	0	2
2	3	180	2	0	0	2	2
3	2	180	2	0	0	2	2
4	5	10	1	0	0	2	1
6	7	10	1	0	0	2	1
8	9	10	1	0	0	2	1
10	11	10	1	0	0	2	1
12	13	10	1	0	0	2	1
14	15	10	1	0	0	2	1
16	17	10	1	0	0	2	1
18	19	10	1	0	0	2	1
20	21	10	1	0	0	2	1
22	23	10	1	0	0	2	1
24	25	10	1	0	0	2	1
26	27	10	1	0	0	2	1
28	29	10	1	0	0	2	1
30	31	10	1	0	0	2	1
32	33	10	1	0	0	2	1
34	35	10	1	0	0	2	1
36	37	10	1	0	0	2	1
38	39	10	1	0	0	2	1
40	41	10	1	0	0	2	1
42	43	10	1	0	0	2	1
44	45	10	1	0	0	2	1
46	47	10	1	0	0	2	1
48	49	10	1	0	0	2	1
50	51	10	1	0	0	2	1
52	53	10	1	0	0	2	1
54	55	10	1	0	0	2	1
56	57	10	1	0	0	2	1
58	59	10	1	0	0	2	1
60	61	10	1	0	0	2	1
62	63	10	1	0	0	2	1
64	65	10	1	0	0	2	1
66	67	10	1	0	0	2	1
68	69	14	1	0	0	1	1
70	71	14	1	0	0	1	1
72	73	7.7000000000000002	1	0	0	3	1
74	75	7.7000000000000002	1	0	0	3	1
76	77	14	1	0	0	1	1
78	79	14	1	0	0	1	1
80	81	7.7000000000000002	1	0	0	3	1
82	83	7.7000000000000002	1	0	0	3	1
84	85	14	1	0	0	1	1
86	87	14	1	0	0	1	1
88	89	7.7000000000000002	1	0	0	3	1
90	91	7.7000000000000002	1	0	0	3	1
92	93	14	1	0	0	1	1
94	95	14	1	0	0	1	1
96	97	7.7000000000000002	1	0	0	3	1
98	99	7.7000000000000002	1	0	0	3	1
100	101	14	1	0	0	1	1
102	103	14	1	0	0	1	1
104	105	7.7000000000000002	1	0	0	3	1
106	107	7.7000000000000002	1	0	0	3	1
108	109	14	1	0	0	1	1
110	111	14	1	0	0	1	1
112	113	7.7000000000000002	1	0	0	3	1
114	115	7.7000000000000002	1	0	0	3	1
116	117	14	1	0	0	1	1
118	119	14	1	0	0	1	1
120	121	7.7000000000000002	1	0	0	3	1
122	123	7.7000000000000002	1	0	0	3	1
124	125	14	1	0	0	1	1
126	127	14	1	0	0	1	1
128	129	7.7000000000000002	1	0	0	3	1
130	131	7.7000000000000002	1	0	0	3	1
[NumHoles] = 0
[NumBlockLabels] = 34
250	0	1	-1	0	0	0	1	0
7.0710678118654844	7.0710678118654826	4	-1	0	0	2	1	0
93.691648507217721	93.691648507217707	2	-1	0	45	2	1	0
50.705554597900345	122.41403816655534	2	-1	0	247.5	2	1	0
3.1974423109204508e-014	132.50000069689983	2	-1	0	90	2	1	0
-50.705554597900331	122.41403816655532	2	-1	0	292.5	2	1	0
-93.691648507217707	93.691648507217721	2	-1	0	135	2	1	0
-122.41403816655534	50.705554597900345	2	-1	0	337.5	2	1	0
-132.50000069689983	3.1974423109204508e-014	2	-1	0	180	2	1	0
-122.41403816655532	-50.705554597900331	2	-1	0	382.5	2	1	0
-93.691648507217721	-93.691648507217707	2	-1	0	225	2	1	0
-50.705554597900345	-122.41403816655534	2	-1	0	427.5	2	1	0
-3.1974423109204508e-014	-132.50000069689983	2	-1	0	270	2	1	0
50.705554597900331	-122.41403816655532	2	-1	0	472.5	2	1	0
93.691648507217707	-93.691648507217721	2	-1	0	315	2	1	0
122.41403816655534	-50.705554597900345	2	-1	0	517.5	2	1	0
132.50000069689983	-3.1974423109204508e-014	2	-1	0	360	2	1	0
122.41403816655532	50.705554597900331	2	-1	0	562.5	2	1	0
162	0	4	-1	0	0	1	1	0
181.5	0	5	-1	0	0	3	1	0
114.551299	114.551299	4	-1	0	0	1	1	0
128.33988099999999	128.33988099999999	5	-1	0	0	3	1	0
0	162	4	-1	0	0	1	1	0
0	181.5	5	-1	0	0	3	1	0
-114.551299	114.551299	4	-1	0	0	1	1	0
-128.33988099999999	128.33988099999999	5	-1	0	0	3	1	0
-162	0	4	-1	0	0	1	1	0
-181.5	0	5	-1	0	0	3	1	0
-114.551299	-114.551299	4	-1	0	0	1	1	0
-128.33988099999999	-128.33988099999999	5	-1	0	0	3	1	0
0	-162	4	-1	0	0	1	1	0
0	-181.5	5	-1	0	0	3	1	0
114.551299	-114.551299	4	-1	0	0	1	1	0
128.33988099999999	-128.33988099999999	5	-1	0	0	3	1	0
