[Format]      =  4.0
[Frequency]   =  0
[Precision]   =  1e-008
[MinAngle]    =  30
[DoSmartMesh] =  1
[Depth]       =  25
[LengthUnits] =  millimeters
[ProblemType] =  planar
[Coordinates] =  cartesian
[ACSolver]    =  0
[PrevType]    =  0
[PrevSoln]    =  ""
[Comment]     =  "Add comments here."
[PointProps]   = 0
[BdryProps]   = 0
[BlockProps]  = 5
  <BeginBlock>
    <BlockName> = "Air"
    <Mu_x> = 1
    <Mu_y> = 1
    <H_c> = 0
    <H_cAngle> = 0
    <J_re> = 0
    <J_im> = 0
    <Sigma> = 0
    <d_lam> = 0
    <Phi_h> = 0
    <Phi_hx> = 0
    <Phi_hy> = 0
    <LamType> = 0
    <LamFill> = 1
    <NStrands> = 0
    <WireD> = 0
    <BHPoints> = 0
  <EndBlock>
  <BeginBlock>
    <BlockName> = "NdFeB 40 MGOe"
    <Mu_x> = 1.0489999999999999
    <Mu_y> = 1.0489999999999999
    <H_c> = 979000
    <H_cAngle> = 0
    <J_re> = 0
    <J_im> = 0
    <Sigma> = 0.66700000000000004
    <d_lam> = 0
    <Phi_h> = 0
    <Phi_hx> = 0
    <Phi_hy> = 0
    <LamType> = 0
    <LamFill> = 1
    <NStrands> = 0
    <WireD> = 0
    <BHPoints> = 0
  <EndBlock>
  <BeginBlock>
    <BlockName> = "1010 Steel"
    <Mu_x> = 902.60000000000002
    <Mu_y> = 902.60000000000002
    <H_c> = 0
    <H_cAngle> = 0
    <J_re> = 0
    <J_im> = 0
    <Sigma> = 5.7999999999999998
    <d_lam> = 0
    <Phi_h> = 20
    <Phi_hx> = 0
    <Phi_hy> = 0
    <LamType> = 0
    <LamFill> = 1
    <NStrands> = 0
    <WireD> = 0
    <BHPoints> = 38
      0	0
      0.21186199999999999	79.577472
      0.26566499999999998	100.182101
      0.33237699999999998	126.121793
      0.414377	158.77793
      0.51381100000000002	199.88957099999999
      0.63189899999999999	251.646061
      0.76778400000000002	316.80362000000002
      0.917018	398.83212800000001
      1.0703530000000001	502.09990099999999
      1.2142550000000001	632.10632499999997
      1.3346370000000001	795.77471500000001
      1.4229810000000001	1001.821011
      1.480634	1261.2179289999999
      1.5172140000000001	1587.779301
      1.5445150000000001	1998.89571
      1.571296	2516.4606050000002
      1.6020490000000001	3168.036204
      1.638404	3988.3212819999999
      1.68049	5020.9990129999996
      1.727311	6321.0632500000002
      1.776659	7957.747155
      1.8254010000000001	10018.210114
      1.870557	12612.179292999999
      1.910809	15877.793009999999
      1.947222	19988.957103000001
      1.9823280000000001	25164.606051999999
      2.0182519999999999	31680.362036999999
      2.0553979999999998	39883.212823000002
      2.0925449999999999	50209.990126999997
      2.1280950000000001	63210.632496999999
      2.1616119999999999	79577.471546000001
      2.1946439999999998	100182.101136
      2.2303389999999998	126121.79292599999
      2.272386	158777.930096
      2.3242820000000002	199889.57102999999
      2.3893559999999998	251646.06052200001
      2.471238	316803.62037000002
  <EndBlock>
  <BeginBlock>
    <BlockName> = "1010 Steel"
    <Mu_x> = 902.60000000000002
    <Mu_y> = 902.60000000000002
    <H_c> = 0
    <H_cAngle> = 0
    <J_re> = 0
    <J_im> = 0
    <Sigma> = 5.7999999999999998
    <d_lam> = 0
    <Phi_h> = 20
    <Phi_hx> = 0
    <Phi_hy> = 0
    <LamType> = 0
    <LamFill> = 1
    <NStrands> = 0
    <WireD> = 0
    <BHPoints> = 38
      0	0
      0.21186199999999999	79.577472
      0.26566499999999998	100.182101
      0.33237699999999998	126.121793
      0.414377	158.77793
      0.51381100000000002	199.88957099999999
      0.63189899999999999	251.646061
      0.76778400000000002	316.80362000000002
      0.917018	398.83212800000001
      1.0703530000000001	502.09990099999999
      1.2142550000000001	632.10632499999997
      1.3346370000000001	795.77471500000001
      1.4229810000000001	1001.821011
      1.480634	1261.2179289999999
      1.5172140000000001	1587.779301
      1.5445150000000001	1998.89571
      1.571296	2516.4606050000002
      1.6020490000000001	3168.036204
      1.638404	3988.3212819999999
      1.68049	5020.9990129999996
      1.727311	6321.0632500000002
      1.776659	7957.747155
      1.8254010000000001	10018.210114
      1.870557	12612.179292999999
      1.910809	15877.793009999999
      1.947222	19988.957103000001
      1.9823280000000001	25164.606051999999
      2.0182519999999999	31680.362036999999
      2.0553979999999998	39883.212823000002
      2.0925449999999999	50209.990126999997
      2.1280950000000001	63210.632496999999
      2.1616119999999999	79577.471546000001
      2.1946439999999998	100182.101136
      2.2303389999999998	126121.79292599999
      2.272386	158777.930096
      2.3242820000000002	199889.57102999999
      2.3893559999999998	251646.06052200001
      2.471238	316803.62037000002
  <EndBlock>
  <BeginBlock>
    <BlockName> = "Copper"
    <Mu_x> = 1
    <Mu_y> = 1
    <H_c> = 0
    <H_cAngle> = 0
    <J_re> = 0
    <J_im> = 0
    <Sigma> = 58
    <d_lam> = 0
    <Phi_h> = 0
    <Phi_hx> = 0
    <Phi_hy> = 0
    <LamType> = 0
    <LamFill> = 1
    <NStrands> = 0
    <WireD> = 0
    <BHPoints> = 0
  <EndBlock>
[CircuitProps]  = 0
[NumPoints] = 132
260	0	0	0
-260	0	0	0
110.00000000000088	-8.2600593032111647e-014	0	0
-110.00000000000088	8.2600593032111647e-014	0	0
144.20567500000072	-15.156627000000196	0	0
144.20567500000092	15.156627000000046	0	0
119.34262700000076	12.543415999999901	0	0
119.34262700000092	-12.543416000000006	0	0
139.02886200000043	41.182225000000138	0	0
127.4284810000011	69.188020000000506	0	0
105.45805400000069	57.259051000000255	0	0
115.05836800000056	34.081841000000011	0	0
112.68616400000089	91.251457000000499	0	0
91.251457000000755	112.68616400000089	0	0
75.518447000000407	93.257515000000282	0	0
93.257515000000481	75.518447000000393	0	0
69.188020000000492	127.42848100000082	0	0
41.18222500000028	139.02886200000057	0	0
34.081841000000196	115.05836800000067	0	0
57.259051000000404	105.45805400000064	0	0
15.156627000000196	144.20567500000072	0	0
-15.156627000000046	144.20567500000092	0	0
-12.543415999999901	119.34262700000076	0	0
12.543416000000006	119.34262700000092	0	0
-41.182225000000138	139.02886200000043	0	0
-69.188020000000506	127.4284810000011	0	0
-57.259051000000255	105.45805400000069	0	0
-34.081841000000011	115.05836800000056	0	0
-91.251457000000499	112.68616400000089	0	0
-112.68616400000089	91.251457000000755	0	0
-93.257515000000282	75.518447000000407	0	0
-75.518447000000393	93.257515000000481	0	0
-127.42848100000082	69.188020000000492	0	0
-139.02886200000057	41.18222500000028	0	0
-115.05836800000067	34.081841000000196	0	0
-105.45805400000064	57.259051000000404	0	0
-144.20567500000072	15.156627000000196	0	0
-144.20567500000092	-15.156627000000046	0	0
-119.34262700000076	-12.543415999999901	0	0
-119.34262700000092	12.543416000000006	0	0
-139.02886200000043	-41.182225000000138	0	0
-127.4284810000011	-69.188020000000506	0	0
-105.45805400000069	-57.259051000000255	0	0
-115.05836800000056	-34.081841000000011	0	0
-112.68616400000089	-91.251457000000499	0	0
-91.251457000000755	-112.68616400000089	0	0
-75.518447000000407	-93.257515000000282	0	0
-93.257515000000481	-75.518447000000393	0	0
-69.188020000000492	-127.42848100000082	0	0
-41.18222500000028	-139.02886200000057	0	0
-34.081841000000196	-115.05836800000067	0	0
-57.259051000000404	-105.45805400000064	0	0
-15.156627000000196	-144.20567500000072	0	0
15.156627000000046	-144.20567500000092	0	0
12.543415999999901	-119.34262700000076	0	0
-12.543416000000006	-119.34262700000092	0	0
41.182225000000138	-139.02886200000043	0	0
69.188020000000506	-127.4284810000011	0	0
57.259051000000255	-105.45805400000069	0	0
34.081841000000011	-115.05836800000056	0	0
91.251457000000499	-112.68616400000089	0	0
112.68616400000089	-91.251457000000755	0	0
93.257515000000282	-75.518447000000407	0	0
75.518447000000393	-93.257515000000481	0	0
127.42848100000082	-69.188020000000492	0	0
139.02886200000057	-41.18222500000028	0	0
115.05836800000067	-34.081841000000196	0	0
105.45805400000064	-57.259051000000404	0	0
202.47611000000001	-32.069065000000002	0	0
202.47611000000001	32.069065000000002	0	0
156.05475799999999	24.716645	0	0
156.05475799999999	-24.716645	0	0
196.265264	-16.998414	0	0
196.265264	16.998414	0	0
165.38088200000001	14.323537	0	0
165.38088200000001	-14.323537	0	0
165.84848400000001	120.495977	0	0
120.495977	165.84848400000001	0	0
92.870069999999998	127.824685	0	0
127.824685	92.870069999999998	0	0
150.80019300000001	126.760805	0	0
126.760805	150.80019300000001	0	0
106.81367400000001	127.070213	0	0
127.070213	106.81367400000001	0	0
32.069065000000002	202.47611000000001	0	0
-32.069065000000002	202.47611000000001	0	0
-24.716645	156.05475799999999	0	0
24.716645	156.05475799999999	0	0
16.998414	196.265264	0	0
-16.998414	196.265264	0	0
-14.323537	165.38088200000001	0	0
14.323537	165.38088200000001	0	0
-120.495977	165.84848400000001	0	0
-165.84848400000001	120.495977	0	0
-127.824685	92.870069999999998	0	0
-92.870069999999998	127.824685	0	0
-126.760805	150.80019300000001	0	0
-150.80019300000001	126.760805	0	0
-127.070213	106.81367400000001	0	0
-106.81367400000001	127.070213	0	0
-202.47611000000001	32.069065000000002	0	0
-202.47611000000001	-32.069065000000002	0	0
-156.05475799999999	-24.716645	0	0
-156.05475799999999	24.716645	0	0
-196.265264	16.998414	0	0
-196.265264	-16.998414	0	0
-165.38088200000001	-14.323537	0	0
-165.38088200000001	14.323537	0	0
-165.84848400000001	-120.495977	0	0
-120.495977	-165.84848400000001	0	0
-92.870069999999998	-127.824685	0	0
-127.824685	-92.870069999999998	0	0
-150.80019300000001	-126.760805	0	0
-126.760805	-150.80019300000001	0	0
-106.81367400000001	-127.070213	0	0
-127.070213	-106.81367400000001	0	0
-32.069065000000002	-202.47611000000001	0	0
32.069065000000002	-202.47611000000001	0	0
24.716645	-156.05475799999999	0	0
-24.716645	-156.05475799999999	0	0
-16.998414	-196.265264	0	0
16.998414	-196.265264	0	0
14.323537	-165.38088200000001	0	0
-14.323537	-165.38088200000001	0	0
120.495977	-165.84848400000001	0	0
165.84848400000001	-120.495977	0	0
127.824685	-92.870069999999998	0	0
92.870069999999998	-127.824685	0	0
126.760805	-150.80019300000001	0	0
150.80019300000001	-126.760805	0	0
127.070213	-106.81367400000001	0	0
106.81367400000001	-127.070213	0	0
[NumSegments] = 64
4	7	-1	0	0	2
6	5	-1	0	0	2
8	11	-1	0	0	2
10	9	-1	0	0	2
12	15	-1	0	0	2
14	13	-1	0	0	2
16	19	-1	0	0	2
18	17	-1	0	0	2
20	23	-1	0	0	2
22	21	-1	0	0	2
24	27	-1	0	0	2
26	25	-1	0	0	2
28	31	-1	0	0	2
30	29	-1	0	0	2
32	35	-1	0	0	2
34	33	-1	0	0	2
36	39	-1	0	0	2
38	37	-1	0	0	2
40	43	-1	0	0	2
42	41	-1	0	0	2
44	47	-1	0	0	2
46	45	-1	0	0	2
48	51	-1	0	0	2
50	49	-1	0	0	2
52	55	-1	0	0	2
54	53	-1	0	0	2
56	59	-1	0	0	2
58	57	-1	0	0	2
60	63	-1	0	0	2
62	61	-1	0	0	2
64	67	-1	0	0	2
66	65	-1	0	0	2
68	71	-1	0	0	1
70	69	-1	0	0	1
72	75	-1	0	0	3
74	73	-1	0	0	3
76	79	-1	0	0	1
78	77	-1	0	0	1
80	83	-1	0	0	3
82	81	-1	0	0	3
84	87	-1	0	0	1
86	85	-1	0	0	1
88	91	-1	0	0	3
90	89	-1	0	0	3
92	95	-1	0	0	1
94	93	-1	0	0	1
96	99	-1	0	0	3
98	97	-1	0	0	3
100	103	-1	0	0	1
102	101	-1	0	0	1
104	107	-1	0	0	3
106	105	-1	0	0	3
108	111	-1	0	0	1
110	109	-1	0	0	1
112	115	-1	0	0	3
114	113	-1	0	0	3
116	119	-1	0	0	1
118	117	-1	0	0	1
120	123	-1	0	0	3
122	121	-1	0	0	3
124	127	-1	0	0	1
126	125	-1	0	0	1
128	131	-1	0	0	3
130	129	-1	0	0	3
[NumArcSegments] = 68
0	1	180	2	0	0	0	2
1	0	180	2	0	0	0	2
2	3	180	2	0	0	2	2
3	2	180	2	0	0	2	2
4	5	12	1	0	0	2	1
6	7	12	1	0	0	2	1
8	9	12	1	0	0	2	1
10	11	12	1	0	0	2	1
12	13	12	1	0	0	2	1
14	15	12	1	0	0	2	1
16	17	12	1	0	0	2	1
18	19	12	1	0	0	2	1
20	21	12	1	0	0	2	1
22	23	12	1	0	0	2	1
24	25	12	1	0	0	2	1
26	27	12	1	0	0	2	1
28	29	12	1	0	0	2	1
30	31	12	1	0	0	2	1
32	33	12	1	0	0	2	1
34	35	12	1	0	0	2	1
36	37	12	1	0	0	2	1
38	39	12	1	0	0	2	1
40	41	12	1	0	0	2	1
42	43	12	1	0	0	2	1
44	45	12	1	0	0	2	1
46	47	12	1	0	0	2	1
48	49	12	1	0	0	2	1
50	51	12	1	0	0	2	1
52	53	12	1	0	0	2	1
54	55	12	1	0	0	2	1
56	57	12	1	0	0	2	1
58	59	12	1	0	0	2	1
60	61	12	1	0	0	2	1
62	63	12	1	0	0	2	1
64	65	12	1	0	0	2	1
66	67	12	1	0	0	2	1
68	69	18	1	0	0	1	1
70	71	18	1	0	0	1	1
72	73	9.9000000000000004	1	0	0	3	1
74	75	9.9000000000000004	1	0	0	3	1
76	77	18	1	0	0	1	1
78	79	18	1	0	0	1	1
80	81	9.9000000000000004	1	0	0	3	1
82	83	9.9000000000000004	1	0	0	3	1
84	85	18	1	0	0	1	1
86	87	18	1	0	0	1	1
88	89	9.9000000000000004	1	0	0	3	1
90	91	9.9000000000000004	1	0	0	3	1
92	93	18	1	0	0	1	1
94	95	18	1	0	0	1	1
96	97	9.9000000000000004	1	0	0	3	1
98	99	9.9000000000000004	1	0	0	3	1
100	101	18	1	0	0	1	1
102	103	18	1	0	0	1	1
104	105	9.9000000000000004	1	0	0	3	1
106	107	9.9000000000000004	1	0	0	3	1
108	109	18	1	0	0	1	1
110	111	18	1	0	0	1	1
112	113	9.9000000000000004	1	0	0	3	1
114	115	9.9000000000000004	1	0	0	3	1
116	117	18	1	0	0	1	1
118	119	18	1	0	0	1	1
120	121	9.9000000000000004	1	0	0	3	1
122	123	9.9000000000000004	1	0	0	3	1
124	125	18	1	0	0	1	1
126	127	18	1	0	0	1	1
128	129	9.9000000000000004	1	0	0	3	1
130	131	9.9000000000000004	1	0	0	3	1
[NumHoles] = 0
[NumBlockLabels] = 34
250	0	1	-1	0	0	0	1	0
10.000000000000044	-1.0547118733938987e-014	4	-1	0	0	2	1	0
132.50000000000094	-1.3145040611561853e-013	2	-1	0	360	2	1	0
122.41403800000079	50.705554999999997	2	-1	0	562.5	2	1	0
93.691649000000453	93.691649000000396	2	-1	0	405	2	1	0
50.705555000000174	122.41403800000072	2	-1	0	607.5	2	1	0
1.3145040611561853e-013	132.50000000000094	2	-1	0	450	2	1	0
-50.705554999999997	122.41403800000079	2	-1	0	652.5	2	1	0
-93.691649000000396	93.691649000000453	2	-1	0	495	2	1	0
-122.41403800000072	50.705555000000174	2	-1	0	697.5	2	1	0
-132.50000000000094	1.3145040611561853e-013	2	-1	0	540	2	1	0
-122.41403800000079	-50.705554999999997	2	-1	0	742.5	2	1	0
-93.691649000000453	-93.691649000000396	2	-1	0	585	2	1	0
-50.705555000000174	-122.41403800000072	2	-1	0	787.5	2	1	0
-1.3145040611561853e-013	-132.50000000000094	2	-1	0	630	2	1	0
50.705554999999997	-122.41403800000079	2	-1	0	832.5	2	1	0
93.691649000000396	-93.691649000000453	2	-1	0	675	2	1	0
122.41403800000072	-50.705555000000174	2	-1	0	877.5	2	1	0
162	0	4	-1	0	0	1	1	0
181.5	0	5	-1	0	0	3	1	0
114.551299	114.551299	4	-1	0	0	1	1	0
128.33988099999999	128.33988099999999	5	-1	0	0	3	1	0
0	162	4	-1	0	0	1	1	0
0	181.5	5	-1	0	0	3	1	0
-114.551299	114.551299	4	-1	0	0	1	1	0
-128.33988099999999	128.33988099999999	5	-1	0	0	3	1	0
-162	0	4	-1	0	0	1	1	0
-181.5	0	5	-1	0	0	3	1	0
-114.551299	-114.551299	4	-1	0	0	1	1	0
-128.33988099999999	-128.33988099999999	5	-1	0	0	3	1	0
0	-162	4	-1	0	0	1	1	0
0	-181.5	5	-1	0	0	3	1	0
114.551299	-114.551299	4	-1	0	0	1	1	0
128.33988099999999	-128.33988099999999	5	-1	0	0	3	1	0
